Circuit: * C:\Users\s1lv4r\Documents\conf\simu\Cellule_Rauch.asc

WARNING: Node VS is floating.

WARNING: Less than two connections to node VS.  This node is used by C3.
Direct Newton iteration for .op point succeeded.

Date: Mon Oct 14 23:27:14 2019
Total elapsed time: 0.140 seconds.

tnom = 27
temp = 27
method = modified trap
totiter = 9598
traniter = 9595
tranpoints = 4211
accept = 3523
rejected = 688
matrix size = 11
fillins = 2
solver = Normal
Matrix Compiler1: 552 bytes object code size  0.2/0.1/[0.1]
Matrix Compiler2: 901 bytes object code size  0.1/0.2/[0.1]

