Circuit: * C:\Users\s1lv4r\Documents\conf\Conc_elec\simu\detecteur de crete.asc

.OP point found by inspection.

Date: Tue Oct 15 23:15:13 2019
Total elapsed time: 0.063 seconds.

tnom = 27
temp = 27
method = modified trap
totiter = 2320
traniter = 2320
tranpoints = 1097
accept = 1077
rejected = 20
matrix size = 3
fillins = 0
solver = Normal
Matrix Compiler1: 50 bytes object code size  0.0/0.0/[0.0]
Matrix Compiler2: 175 bytes object code size  0.0/0.1/[0.0]

