Circuit: * C:\Users\s1lv4r\Documents\conf\simu\Draft1.asc

.OP point found by inspection.

Date: Mon Oct 14 21:40:33 2019
Total elapsed time: 0.234 seconds.

tnom = 27
temp = 27
method = modified trap
totiter = 3366
traniter = 3366
tranpoints = 1632
accept = 1525
rejected = 107
matrix size = 3
fillins = 0
solver = Normal
Matrix Compiler1: 50 bytes object code size  0.0/0.0/[0.0]
Matrix Compiler2: off  [0.0]/0.1/0.0

