Circuit: * C:\Users\s1lv4r\Documents\conf\Draft3.asc

Direct Newton iteration for .op point succeeded.

Date: Mon Oct 14 14:20:47 2019
Total elapsed time: 0.188 seconds.

tnom = 27
temp = 27
method = modified trap
totiter = 4282
traniter = 4274
tranpoints = 1973
accept = 1778
rejected = 195
matrix size = 9
fillins = 0
solver = Normal
Matrix Compiler1: 412 bytes object code size  0.2/0.2/[0.1]
Matrix Compiler2: 735 bytes object code size  0.1/0.3/[0.1]

