Circuit: * C:\Users\s1lv4r\Documents\conf\Conc_elec\simu\Emetteur_v1.asc

Direct Newton iteration for .op point succeeded.

Date: Tue Oct 15 23:00:02 2019
Total elapsed time: 0.156 seconds.

tnom = 27
temp = 27
method = modified trap
totiter = 5009
traniter = 4979
tranpoints = 1809
accept = 1626
rejected = 183
matrix size = 19
fillins = 0
solver = Normal
Matrix Compiler1: 812 bytes object code size  0.2/0.2/[0.1]
Matrix Compiler2: off  [0.2]/0.2/0.3

