Circuit: * C:\Users\s1lv4r\Documents\conf\simu\Emetteur_v1.asc

R_s: both pins shorted together -- ignoring.
Direct Newton iteration for .op point succeeded.

Date: Tue Oct 15 13:22:10 2019
Total elapsed time: 0.113 seconds.

tnom = 27
temp = 27
method = modified trap
totiter = 5005
traniter = 4983
tranpoints = 1854
accept = 1637
rejected = 217
matrix size = 18
fillins = 0
solver = Normal
Matrix Compiler1: 650 bytes object code size  0.2/0.1/[0.1]
Matrix Compiler2: 1.16 KB object code size  0.1/0.2/[0.1]

