Circuit: * C:\Users\s1lv4r\Documents\conf\simu\Recepteur_v1.asc

Direct Newton iteration for .op point succeeded.

Date: Tue Oct 15 13:08:40 2019
Total elapsed time: 0.425 seconds.

tnom = 27
temp = 27
method = modified trap
totiter = 17403
traniter = 17353
tranpoints = 7104
accept = 5752
rejected = 1352
matrix size = 15
fillins = 1
solver = Normal
Matrix Compiler1: 850 bytes object code size  0.2/0.1/[0.1]
Matrix Compiler2: off  [0.2]/0.6/0.2

